ieee33-dg-voltage-regulation/results/S2_HighDG_Losses.csv
Element,  Total(W), Total(var),  I2R(W), I2X(var), No-load(W), No-load(var)
Transformer.SUBTRANS, 17854.05, 85348.78, 7467.55, 85348.78, 10386.5, 2.273737E-13
Line.L1, 3050.486, 1377.448, 3050.486, 1377.448, 0, 0
Line.L2, 13062.39, 6476.89, 13062.39, 6476.89, 0, 0
Line.L3, 3550.076, 1633.431, 3550.076, 1633.431, 0, 0
Line.L4, 3002.332, 1355.4, 3002.332, 1355.4, 0, 0
Line.L5, 5885.422, 4908.35, 5885.422, 4908.35, 0, 0
Line.L6, 440.3342, 1284.306, 440.3342, 1284.306, 0, 0
Line.L7, 2978.233, 812.2279, 2978.233, 812.2279, 0, 0
Line.L8, 6832.813, 4735.086, 6832.813, 4735.086, 0, 0
Line.L9, 7783.331, 5340.329, 7783.331, 5340.329, 0, 0
Line.L10, 876.0275, 111.4641, 876.0275, 111.4641, 0, 0
Line.L11, 1869.474, 439.4228, 1869.474, 439.4228, 0, 0
Line.L12, 8437.37, 6457.461, 8437.37, 6457.461, 0, 0
Line.L13, 3548.418, 4487.177, 3548.418, 4487.177, 0, 0
Line.L14, 4944.048, 4214.986, 4944.048, 4214.986, 0, 0
Line.L15, 6879.781, 4836.665, 6879.781, 4836.665, 0, 0
Line.L16, 13088.64, 17284.06, 13088.64, 17284.06, 0, 0
Line.L17, 8160.141, 6203.764, 8160.141, 6203.764, 0, 0
Line.L18, 18.24291, -159.8891, 18.24291, -159.8891, 0, 0
Line.L19, 45.06676, -136.5714, 45.06676, -136.5714, 0, 0
Line.L20, 26.82763, -145.7815, 26.82763, -145.7815, 0, 0
Line.L21, 154.4695, 26.93278, 154.4695, 26.93278, 0, 0
Line.L22, 1799.471, 1054.993, 1799.471, 1054.993, 0, 0
Line.L23, 2726.208, 1979.489, 2726.208, 1979.489, 0, 0
Line.L24, 322.9286, 80.58274, 322.9286, 80.58274, 0, 0
Line.L25, 2329.674, 1015.829, 2329.674, 1015.829, 0, 0
Line.L26, 2981.457, 1347.918, 2981.457, 1347.918, 0, 0
Line.L27, 10119.98, 8754.758, 10119.98, 8754.758, 0, 0
Line.L28, 7014.946, 5946.559, 7014.946, 5946.559, 0, 0
Line.L29, 3488.515, 1614.08, 3488.515, 1614.08, 0, 0
Line.L30, 1426.437, 1248.136, 1426.437, 1248.136, 0, 0
Line.L31, 190.8189, 61.59324, 190.8189, 61.59324, 0, 0
Line.L32, 11.77993, -142.3097, 11.77993, -142.3097, 0, 0
